gefitinib_pose_1
     RDKit          3D

 55 58  0  0  0  0  0  0  0  0999 V2000
   -0.4300  194.8030   15.3460 C   0  0  0  0  0  0  0  0  0  0  0  0
    0.4020  194.1700   16.3080 O   0  0  0  0  0  0  0  0  0  0  0  0
    0.3070  194.5920   17.6110 C   0  0  0  0  0  0  0  0  0  0  0  0
   -0.3790  195.7390   18.0240 C   0  0  0  0  0  0  0  0  0  0  0  0
   -0.4480  196.1160   19.3590 C   0  0  0  0  0  0  0  0  0  0  0  0
   -1.1140  197.2310   19.6680 N   0  0  0  0  0  0  0  0  0  0  0  0
   -1.1540  197.5720   20.9600 C   0  0  0  0  0  0  0  0  0  0  0  0
   -0.6070  196.8930   21.9700 N   0  0  0  0  0  0  0  0  0  0  0  0
    0.0490  195.7610   21.6550 C   0  0  0  0  0  0  0  0  0  0  0  0
    0.6100  194.9740   22.7000 N   0  0  0  0  0  0  0  0  0  0  0  0
    0.6830  195.2850   24.0770 C   0  0  0  0  0  0  0  0  0  0  0  0
    1.9370  195.5770   24.6430 C   0  0  0  0  0  0  0  0  0  0  0  0
    2.0510  195.9510   25.9840 C   0  0  0  0  0  0  0  0  0  0  0  0
    0.9080  196.0610   26.7670 C   0  0  0  0  0  0  0  0  0  0  0  0
    1.0390  196.4230   28.0510 F   0  0  0  0  0  0  0  0  0  0  0  0
   -0.3460  195.8130   26.2180 C   0  0  0  0  0  0  0  0  0  0  0  0
   -1.7680  195.9760   27.1760 Cl  0  0  0  0  0  0  0  0  0  0  0  0
   -0.4580  195.4390   24.8770 C   0  0  0  0  0  0  0  0  0  0  0  0
    0.1770  195.3160   20.3230 C   0  0  0  0  0  0  0  0  0  0  0  0
    0.8850  194.1560   19.9130 C   0  0  0  0  0  0  0  0  0  0  0  0
    0.9510  193.7910   18.5680 C   0  0  0  0  0  0  0  0  0  0  0  0
    1.6150  192.6930   18.0870 O   0  0  0  0  0  0  0  0  0  0  0  0
    2.8350  192.3110   18.7140 C   0  0  0  0  0  0  0  0  0  0  0  0
    3.9100  193.3530   18.4030 C   0  0  0  0  0  0  0  0  0  0  0  0
    4.9210  193.4900   19.5500 C   0  0  0  0  0  0  0  0  0  0  0  0
    4.2860  193.4470   20.8770 N   0  0  0  0  0  0  0  0  0  0  0  0
    5.0270  192.5870   21.8280 C   0  0  0  0  0  0  0  0  0  0  0  0
    4.7940  193.0010   23.2890 C   0  0  0  0  0  0  0  0  0  0  0  0
    5.2850  194.3190   23.5700 O   0  0  0  0  0  0  0  0  0  0  0  0
    5.2010  195.2010   22.4420 C   0  0  0  0  0  0  0  0  0  0  0  0
    4.1060  194.8040   21.4400 C   0  0  0  0  0  0  0  0  0  0  0  0
   -1.2036  195.3916   15.8609 H   0  0  0  0  0  0  0  0  0  0  0  0
    0.1785  195.4685   14.7161 H   0  0  0  0  0  0  0  0  0  0  0  0
   -0.9091  194.0390   14.7161 H   0  0  0  0  0  0  0  0  0  0  0  0
   -0.8794  196.3618   17.2679 H   0  0  0  0  0  0  0  0  0  0  0  0
   -1.6880  198.4995   21.2143 H   0  0  0  0  0  0  0  0  0  0  0  0
    0.3420  194.0060   22.5480 H   0  0  0  0  0  0  0  0  0  0  0  0
    2.8414  195.5098   24.0204 H   0  0  0  0  0  0  0  0  0  0  0  0
    3.0404  196.1574   26.4181 H   0  0  0  0  0  0  0  0  0  0  0  0
   -1.4535  195.2631   24.4433 H   0  0  0  0  0  0  0  0  0  0  0  0
    1.3897  193.5350   20.6677 H   0  0  0  0  0  0  0  0  0  0  0  0
    2.6858  192.2503   19.8021 H   0  0  0  0  0  0  0  0  0  0  0  0
    3.1528  191.3286   18.3346 H   0  0  0  0  0  0  0  0  0  0  0  0
    4.4454  193.0507   17.4909 H   0  0  0  0  0  0  0  0  0  0  0  0
    3.4140  194.3253   18.2669 H   0  0  0  0  0  0  0  0  0  0  0  0
    5.6458  192.6655   19.4802 H   0  0  0  0  0  0  0  0  0  0  0  0
    5.4082  194.4709   19.4472 H   0  0  0  0  0  0  0  0  0  0  0  0
    4.6946  191.5466   21.6975 H   0  0  0  0  0  0  0  0  0  0  0  0
    6.1006  192.6946   21.6140 H   0  0  0  0  0  0  0  0  0  0  0  0
    3.7138  192.9753   23.4952 H   0  0  0  0  0  0  0  0  0  0  0  0
    5.3441  192.2953   23.9288 H   0  0  0  0  0  0  0  0  0  0  0  0
    4.9880  196.2163   22.8078 H   0  0  0  0  0  0  0  0  0  0  0  0
    6.1633  195.1446   21.9121 H   0  0  0  0  0  0  0  0  0  0  0  0
    3.1338  194.8421   21.9532 H   0  0  0  0  0  0  0  0  0  0  0  0
    4.1623  195.5130   20.6008 H   0  0  0  0  0  0  0  0  0  0  0  0
  1  2  1  0
  2  3  1  0
  3  4  2  0
  4  5  1  0
  5  6  2  0
  6  7  1  0
  7  8  2  0
  8  9  1  0
  9 10  1  0
 10 11  1  0
 11 12  1  0
 12 13  2  0
 13 14  1  0
 14 15  1  0
 14 16  2  0
 16 17  1  0
 16 18  1  0
  9 19  2  0
 19 20  1  0
 20 21  2  0
 21 22  1  0
 22 23  1  0
 23 24  1  0
 24 25  1  0
 25 26  1  0
 26 27  1  0
 27 28  1  0
 28 29  1  0
 29 30  1  0
 30 31  1  0
 21  3  1  0
 31 26  1  0
 19  5  1  0
 18 11  2  0
  1 32  1  0
  1 33  1  0
  1 34  1  0
  4 35  1  0
  7 36  1  0
 10 37  1  0
 12 38  1  0
 13 39  1  0
 18 40  1  0
 20 41  1  0
 23 42  1  0
 23 43  1  0
 24 44  1  0
 24 45  1  0
 25 46  1  0
 25 47  1  0
 27 48  1  0
 27 49  1  0
 28 50  1  0
 28 51  1  0
 30 52  1  0
 30 53  1  0
 31 54  1  0
 31 55  1  0
M  END
>  <meeko>  (1) 
{"is_sidechain": false}

>  <vina_score>  (1) 
-8.16

$$$$
gefitinib_pose_2
     RDKit          3D

 55 58  0  0  0  0  0  0  0  0999 V2000
    2.0510  193.5110   15.7390 C   0  0  0  0  0  0  0  0  0  0  0  0
    0.7730  193.3920   16.3490 O   0  0  0  0  0  0  0  0  0  0  0  0
    0.5880  194.0010   17.5660 C   0  0  0  0  0  0  0  0  0  0  0  0
   -0.1100  195.1980   17.7550 C   0  0  0  0  0  0  0  0  0  0  0  0
   -0.2720  195.7660   19.0120 C   0  0  0  0  0  0  0  0  0  0  0  0
   -0.9430  196.9170   19.1050 N   0  0  0  0  0  0  0  0  0  0  0  0
   -1.0730  197.4430   20.3260 C   0  0  0  0  0  0  0  0  0  0  0  0
   -0.6110  196.9180   21.4620 N   0  0  0  0  0  0  0  0  0  0  0  0
    0.0510  195.7500   21.3660 C   0  0  0  0  0  0  0  0  0  0  0  0
    0.5220  195.1220   22.5540 N   0  0  0  0  0  0  0  0  0  0  0  0
    0.1730  195.4210   23.8900 C   0  0  0  0  0  0  0  0  0  0  0  0
   -1.1030  195.0590   24.3580 C   0  0  0  0  0  0  0  0  0  0  0  0
   -1.4710  195.2770   25.6880 C   0  0  0  0  0  0  0  0  0  0  0  0
   -0.5550  195.8370   26.5710 C   0  0  0  0  0  0  0  0  0  0  0  0
   -0.9260  196.0350   27.8430 F   0  0  0  0  0  0  0  0  0  0  0  0
    0.7250  196.1680   26.1390 C   0  0  0  0  0  0  0  0  0  0  0  0
    1.8730  196.8350   27.2370 Cl  0  0  0  0  0  0  0  0  0  0  0  0
    1.0910  195.9490   24.8090 C   0  0  0  0  0  0  0  0  0  0  0  0
    0.2700  195.1140   20.1270 C   0  0  0  0  0  0  0  0  0  0  0  0
    0.9900  193.9050   19.9430 C   0  0  0  0  0  0  0  0  0  0  0  0
    1.1500  193.3470   18.6750 C   0  0  0  0  0  0  0  0  0  0  0  0
    1.8320  192.1880   18.4100 O   0  0  0  0  0  0  0  0  0  0  0  0
    2.9360  191.8470   19.2420 C   0  0  0  0  0  0  0  0  0  0  0  0
    4.1260  192.7400   18.8900 C   0  0  0  0  0  0  0  0  0  0  0  0
    5.3620  192.4050   19.7370 C   0  0  0  0  0  0  0  0  0  0  0  0
    5.5280  193.3130   20.8850 N   0  0  0  0  0  0  0  0  0  0  0  0
    4.7710  194.5740   20.7190 C   0  0  0  0  0  0  0  0  0  0  0  0
    4.4110  195.2170   22.0670 C   0  0  0  0  0  0  0  0  0  0  0  0
    3.5330  194.3940   22.8500 O   0  0  0  0  0  0  0  0  0  0  0  0
    3.7430  192.9910   22.6370 C   0  0  0  0  0  0  0  0  0  0  0  0
    5.1640  192.6540   22.1590 C   0  0  0  0  0  0  0  0  0  0  0  0
    2.8240  193.5830   16.5183 H   0  0  0  0  0  0  0  0  0  0  0  0
    2.2424  192.6268   15.1133 H   0  0  0  0  0  0  0  0  0  0  0  0
    2.0758  194.4153   15.1133 H   0  0  0  0  0  0  0  0  0  0  0  0
   -0.5442  195.7054   16.8809 H   0  0  0  0  0  0  0  0  0  0  0  0
   -1.6117  198.3990   20.4019 H   0  0  0  0  0  0  0  0  0  0  0  0
    0.5590  194.1200   22.3910 H   0  0  0  0  0  0  0  0  0  0  0  0
   -1.8225  194.5970   23.6660 H   0  0  0  0  0  0  0  0  0  0  0  0
   -2.4796  195.0071   26.0344 H   0  0  0  0  0  0  0  0  0  0  0  0
    2.1113  196.1936   24.4786 H   0  0  0  0  0  0  0  0  0  0  0  0
    1.4294  193.3994   20.8155 H   0  0  0  0  0  0  0  0  0  0  0  0
    2.6622  191.9978   20.2966 H   0  0  0  0  0  0  0  0  0  0  0  0
    3.2060  190.7925   19.0837 H   0  0  0  0  0  0  0  0  0  0  0  0
    4.3741  192.5999   17.8275 H   0  0  0  0  0  0  0  0  0  0  0  0
    3.8431  193.7828   19.0964 H   0  0  0  0  0  0  0  0  0  0  0  0
    5.2622  191.3763   20.1136 H   0  0  0  0  0  0  0  0  0  0  0  0
    6.2466  192.5186   19.0931 H   0  0  0  0  0  0  0  0  0  0  0  0
    5.3840  195.2817   20.1415 H   0  0  0  0  0  0  0  0  0  0  0  0
    3.8324  194.3379   20.1963 H   0  0  0  0  0  0  0  0  0  0  0  0
    5.3371  195.3862   22.6360 H   0  0  0  0  0  0  0  0  0  0  0  0
    3.8872  196.1615   21.8583 H   0  0  0  0  0  0  0  0  0  0  0  0
    3.5590  192.4628   23.5842 H   0  0  0  0  0  0  0  0  0  0  0  0
    3.0493  192.6748   21.8440 H   0  0  0  0  0  0  0  0  0  0  0  0
    5.8771  192.9738   22.9330 H   0  0  0  0  0  0  0  0  0  0  0  0
    5.1986  191.5685   21.9842 H   0  0  0  0  0  0  0  0  0  0  0  0
  1  2  1  0
  2  3  1  0
  3  4  2  0
  4  5  1  0
  5  6  2  0
  6  7  1  0
  7  8  2  0
  8  9  1  0
  9 10  1  0
 10 11  1  0
 11 12  1  0
 12 13  2  0
 13 14  1  0
 14 15  1  0
 14 16  2  0
 16 17  1  0
 16 18  1  0
  9 19  2  0
 19 20  1  0
 20 21  2  0
 21 22  1  0
 22 23  1  0
 23 24  1  0
 24 25  1  0
 25 26  1  0
 26 27  1  0
 27 28  1  0
 28 29  1  0
 29 30  1  0
 30 31  1  0
 21  3  1  0
 31 26  1  0
 19  5  1  0
 18 11  2  0
  1 32  1  0
  1 33  1  0
  1 34  1  0
  4 35  1  0
  7 36  1  0
 10 37  1  0
 12 38  1  0
 13 39  1  0
 18 40  1  0
 20 41  1  0
 23 42  1  0
 23 43  1  0
 24 44  1  0
 24 45  1  0
 25 46  1  0
 25 47  1  0
 27 48  1  0
 27 49  1  0
 28 50  1  0
 28 51  1  0
 30 52  1  0
 30 53  1  0
 31 54  1  0
 31 55  1  0
M  END
>  <meeko>  (2) 
{"is_sidechain": false}

>  <vina_score>  (2) 
-7.92

$$$$
gefitinib_pose_3
     RDKit          3D

 55 58  0  0  0  0  0  0  0  0999 V2000
   -0.4400  194.7090   15.3540 C   0  0  0  0  0  0  0  0  0  0  0  0
    0.4690  194.1780   16.3090 O   0  0  0  0  0  0  0  0  0  0  0  0
    0.3490  194.6040   17.6080 C   0  0  0  0  0  0  0  0  0  0  0  0
   -0.3330  195.7590   18.0050 C   0  0  0  0  0  0  0  0  0  0  0  0
   -0.4270  196.1380   19.3370 C   0  0  0  0  0  0  0  0  0  0  0  0
   -1.0870  197.2620   19.6300 N   0  0  0  0  0  0  0  0  0  0  0  0
   -1.1520  197.6060   20.9190 C   0  0  0  0  0  0  0  0  0  0  0  0
   -0.6340  196.9220   21.9420 N   0  0  0  0  0  0  0  0  0  0  0  0
    0.0150  195.7820   21.6440 C   0  0  0  0  0  0  0  0  0  0  0  0
    0.5440  194.9910   22.7020 N   0  0  0  0  0  0  0  0  0  0  0  0
    0.6050  195.3100   24.0780 C   0  0  0  0  0  0  0  0  0  0  0  0
    1.8500  195.6300   24.6480 C   0  0  0  0  0  0  0  0  0  0  0  0
    1.9510  196.0130   25.9880 C   0  0  0  0  0  0  0  0  0  0  0  0
    0.8020  196.1040   26.7650 C   0  0  0  0  0  0  0  0  0  0  0  0
    0.9200  196.4760   28.0470 F   0  0  0  0  0  0  0  0  0  0  0  0
   -0.4440  195.8290   26.2120 C   0  0  0  0  0  0  0  0  0  0  0  0
   -1.8740  195.9700   27.1620 Cl  0  0  0  0  0  0  0  0  0  0  0  0
   -0.5430  195.4470   24.8710 C   0  0  0  0  0  0  0  0  0  0  0  0
    0.1670  195.3340   20.3160 C   0  0  0  0  0  0  0  0  0  0  0  0
    0.8720  194.1660   19.9230 C   0  0  0  0  0  0  0  0  0  0  0  0
    0.9640  193.7980   18.5800 C   0  0  0  0  0  0  0  0  0  0  0  0
    1.6260  192.6920   18.1160 O   0  0  0  0  0  0  0  0  0  0  0  0
    3.0330  192.6100   18.3190 C   0  0  0  0  0  0  0  0  0  0  0  0
    3.5440  191.2750   17.7770 C   0  0  0  0  0  0  0  0  0  0  0  0
    4.1060  191.4120   16.3560 C   0  0  0  0  0  0  0  0  0  0  0  0
    3.3030  192.3100   15.5100 N   0  0  0  0  0  0  0  0  0  0  0  0
    4.1040  193.4240   14.9520 C   0  0  0  0  0  0  0  0  0  0  0  0
    3.5120  193.9660   13.6420 C   0  0  0  0  0  0  0  0  0  0  0  0
    3.5160  192.9870   12.5930 O   0  0  0  0  0  0  0  0  0  0  0  0
    3.3530  191.6460   13.0770 C   0  0  0  0  0  0  0  0  0  0  0  0
    2.6200  191.5710   14.4250 C   0  0  0  0  0  0  0  0  0  0  0  0
   -1.2762  195.1975   15.8758 H   0  0  0  0  0  0  0  0  0  0  0  0
    0.0794  195.4458   14.7236 H   0  0  0  0  0  0  0  0  0  0  0  0
   -0.8267  193.8947   14.7236 H   0  0  0  0  0  0  0  0  0  0  0  0
   -0.8097  196.3865   17.2376 H   0  0  0  0  0  0  0  0  0  0  0  0
   -1.6815  198.5396   21.1601 H   0  0  0  0  0  0  0  0  0  0  0  0
    0.2580  194.0280   22.5540 H   0  0  0  0  0  0  0  0  0  0  0  0
    2.7582  195.5780   24.0296 H   0  0  0  0  0  0  0  0  0  0  0  0
    2.9341  196.2412   26.4255 H   0  0  0  0  0  0  0  0  0  0  0  0
   -1.5329  195.2517   24.4329 H   0  0  0  0  0  0  0  0  0  0  0  0
    1.3535  193.5410   20.6895 H   0  0  0  0  0  0  0  0  0  0  0  0
    3.5296  193.4362   17.7891 H   0  0  0  0  0  0  0  0  0  0  0  0
    3.2553  192.6810   19.3940 H   0  0  0  0  0  0  0  0  0  0  0  0
    4.3393  190.9031   18.4397 H   0  0  0  0  0  0  0  0  0  0  0  0
    2.6968  190.5743   17.7425 H   0  0  0  0  0  0  0  0  0  0  0  0
    5.1293  191.8105   16.4195 H   0  0  0  0  0  0  0  0  0  0  0  0
    4.0851  190.4142   15.8936 H   0  0  0  0  0  0  0  0  0  0  0  0
    4.1382  194.2396   15.6893 H   0  0  0  0  0  0  0  0  0  0  0  0
    5.1110  193.0391   14.7334 H   0  0  0  0  0  0  0  0  0  0  0  0
    2.4745  194.2811   13.8271 H   0  0  0  0  0  0  0  0  0  0  0  0
    4.1376  194.8098   13.3153 H   0  0  0  0  0  0  0  0  0  0  0  0
    2.7772  191.0744   12.3343 H   0  0  0  0  0  0  0  0  0  0  0  0
    4.3599  191.2305   13.2303 H   0  0  0  0  0  0  0  0  0  0  0  0
    1.6121  191.9928   14.2973 H   0  0  0  0  0  0  0  0  0  0  0  0
    2.5945  190.5119   14.7210 H   0  0  0  0  0  0  0  0  0  0  0  0
  1  2  1  0
  2  3  1  0
  3  4  2  0
  4  5  1  0
  5  6  2  0
  6  7  1  0
  7  8  2  0
  8  9  1  0
  9 10  1  0
 10 11  1  0
 11 12  1  0
 12 13  2  0
 13 14  1  0
 14 15  1  0
 14 16  2  0
 16 17  1  0
 16 18  1  0
  9 19  2  0
 19 20  1  0
 20 21  2  0
 21 22  1  0
 22 23  1  0
 23 24  1  0
 24 25  1  0
 25 26  1  0
 26 27  1  0
 27 28  1  0
 28 29  1  0
 29 30  1  0
 30 31  1  0
 21  3  1  0
 31 26  1  0
 19  5  1  0
 18 11  2  0
  1 32  1  0
  1 33  1  0
  1 34  1  0
  4 35  1  0
  7 36  1  0
 10 37  1  0
 12 38  1  0
 13 39  1  0
 18 40  1  0
 20 41  1  0
 23 42  1  0
 23 43  1  0
 24 44  1  0
 24 45  1  0
 25 46  1  0
 25 47  1  0
 27 48  1  0
 27 49  1  0
 28 50  1  0
 28 51  1  0
 30 52  1  0
 30 53  1  0
 31 54  1  0
 31 55  1  0
M  END
>  <meeko>  (3) 
{"is_sidechain": false}

>  <vina_score>  (3) 
-7.45

$$$$
gefitinib_pose_4
     RDKit          3D

 55 58  0  0  0  0  0  0  0  0999 V2000
    1.7780  192.4500   15.6090 C   0  0  0  0  0  0  0  0  0  0  0  0
    2.3820  192.4150   16.8940 O   0  0  0  0  0  0  0  0  0  0  0  0
    1.8080  193.1650   17.8900 C   0  0  0  0  0  0  0  0  0  0  0  0
    1.1980  194.4090   17.6940 C   0  0  0  0  0  0  0  0  0  0  0  0
    0.6270  195.1220   18.7390 C   0  0  0  0  0  0  0  0  0  0  0  0
    0.0740  196.3080   18.4690 N   0  0  0  0  0  0  0  0  0  0  0  0
   -0.4580  196.9750   19.4970 C   0  0  0  0  0  0  0  0  0  0  0  0
   -0.5060  196.5580   20.7640 N   0  0  0  0  0  0  0  0  0  0  0  0
    0.0370  195.3560   21.0290 C   0  0  0  0  0  0  0  0  0  0  0  0
   -0.0300  194.8440   22.3560 N   0  0  0  0  0  0  0  0  0  0  0  0
    0.7780  195.1930   23.4620 C   0  0  0  0  0  0  0  0  0  0  0  0
    0.2070  195.9310   24.5150 C   0  0  0  0  0  0  0  0  0  0  0  0
    0.9480  196.2460   25.6570 C   0  0  0  0  0  0  0  0  0  0  0  0
    2.2600  195.8010   25.7690 C   0  0  0  0  0  0  0  0  0  0  0  0
    2.9530  196.1110   26.8740 F   0  0  0  0  0  0  0  0  0  0  0  0
    2.8320  195.0380   24.7570 C   0  0  0  0  0  0  0  0  0  0  0  0
    4.4480  194.4600   24.9040 Cl  0  0  0  0  0  0  0  0  0  0  0  0
    2.0900  194.7250   23.6150 C   0  0  0  0  0  0  0  0  0  0  0  0
    0.6490  194.5750   20.0270 C   0  0  0  0  0  0  0  0  0  0  0  0
    1.2760  193.3190   20.2390 C   0  0  0  0  0  0  0  0  0  0  0  0
    1.8510  192.6140   19.1810 C   0  0  0  0  0  0  0  0  0  0  0  0
    2.4780  191.4010   19.2980 O   0  0  0  0  0  0  0  0  0  0  0  0
    2.1930  190.5990   20.4390 C   0  0  0  0  0  0  0  0  0  0  0  0
    3.4730  190.4080   21.2530 C   0  0  0  0  0  0  0  0  0  0  0  0
    3.7190  191.5780   22.2150 C   0  0  0  0  0  0  0  0  0  0  0  0
    5.0600  192.1670   22.0640 N   0  0  0  0  0  0  0  0  0  0  0  0
    5.9530  191.3270   21.2350 C   0  0  0  0  0  0  0  0  0  0  0  0
    7.0590  192.1500   20.5560 C   0  0  0  0  0  0  0  0  0  0  0  0
    6.5360  193.1090   19.6260 O   0  0  0  0  0  0  0  0  0  0  0  0
    5.2500  193.6170   20.0090 C   0  0  0  0  0  0  0  0  0  0  0  0
    4.9920  193.5430   21.5220 C   0  0  0  0  0  0  0  0  0  0  0  0
    0.6854  192.5133   15.7190 H   0  0  0  0  0  0  0  0  0  0  0  0
    2.1424  193.3285   15.0564 H   0  0  0  0  0  0  0  0  0  0  0  0
    2.0385  191.5353   15.0564 H   0  0  0  0  0  0  0  0  0  0  0  0
    1.1701  194.8351   16.6803 H   0  0  0  0  0  0  0  0  0  0  0  0
   -0.8974  197.9596   19.2790 H   0  0  0  0  0  0  0  0  0  0  0  0
   -1.0080  194.7630   22.6160 H   0  0  0  0  0  0  0  0  0  0  0  0
   -0.8383  196.2650   24.4381 H   0  0  0  0  0  0  0  0  0  0  0  0
    0.4956  196.8427   26.4628 H   0  0  0  0  0  0  0  0  0  0  0  0
    2.5410  194.1041   22.8270 H   0  0  0  0  0  0  0  0  0  0  0  0
    1.3090  192.8949   21.2534 H   0  0  0  0  0  0  0  0  0  0  0  0
    1.4339  191.0983   21.0591 H   0  0  0  0  0  0  0  0  0  0  0  0
    1.8116  189.6192   20.1156 H   0  0  0  0  0  0  0  0  0  0  0  0
    3.3881  189.4795   21.8366 H   0  0  0  0  0  0  0  0  0  0  0  0
    4.3191  190.3595   20.5517 H   0  0  0  0  0  0  0  0  0  0  0  0
    2.9683  192.3579   22.0195 H   0  0  0  0  0  0  0  0  0  0  0  0
    3.6422  191.1864   23.2401 H   0  0  0  0  0  0  0  0  0  0  0  0
    6.4210  190.5665   21.8774 H   0  0  0  0  0  0  0  0  0  0  0  0
    5.3436  190.8638   20.4451 H   0  0  0  0  0  0  0  0  0  0  0  0
    7.6281  192.6840   21.3312 H   0  0  0  0  0  0  0  0  0  0  0  0
    7.6981  191.4529   19.9942 H   0  0  0  0  0  0  0  0  0  0  0  0
    5.1826  194.6690   19.6946 H   0  0  0  0  0  0  0  0  0  0  0  0
    4.4925  192.9879   19.5187 H   0  0  0  0  0  0  0  0  0  0  0  0
    5.7468  194.1573   22.0348 H   0  0  0  0  0  0  0  0  0  0  0  0
    3.9695  193.9098   21.6951 H   0  0  0  0  0  0  0  0  0  0  0  0
  1  2  1  0
  2  3  1  0
  3  4  2  0
  4  5  1  0
  5  6  2  0
  6  7  1  0
  7  8  2  0
  8  9  1  0
  9 10  1  0
 10 11  1  0
 11 12  1  0
 12 13  2  0
 13 14  1  0
 14 15  1  0
 14 16  2  0
 16 17  1  0
 16 18  1  0
  9 19  2  0
 19 20  1  0
 20 21  2  0
 21 22  1  0
 22 23  1  0
 23 24  1  0
 24 25  1  0
 25 26  1  0
 26 27  1  0
 27 28  1  0
 28 29  1  0
 29 30  1  0
 30 31  1  0
 21  3  1  0
 31 26  1  0
 19  5  1  0
 18 11  2  0
  1 32  1  0
  1 33  1  0
  1 34  1  0
  4 35  1  0
  7 36  1  0
 10 37  1  0
 12 38  1  0
 13 39  1  0
 18 40  1  0
 20 41  1  0
 23 42  1  0
 23 43  1  0
 24 44  1  0
 24 45  1  0
 25 46  1  0
 25 47  1  0
 27 48  1  0
 27 49  1  0
 28 50  1  0
 28 51  1  0
 30 52  1  0
 30 53  1  0
 31 54  1  0
 31 55  1  0
M  END
>  <meeko>  (4) 
{"is_sidechain": false}

>  <vina_score>  (4) 
-7.27

$$$$
gefitinib_pose_5
     RDKit          3D

 55 58  0  0  0  0  0  0  0  0999 V2000
    3.7520  193.3570   16.4040 C   0  0  0  0  0  0  0  0  0  0  0  0
    2.7850  192.6550   17.1730 O   0  0  0  0  0  0  0  0  0  0  0  0
    2.0980  193.3590   18.1300 C   0  0  0  0  0  0  0  0  0  0  0  0
    1.4770  194.5930   17.9140 C   0  0  0  0  0  0  0  0  0  0  0  0
    0.7890  195.2590   18.9190 C   0  0  0  0  0  0  0  0  0  0  0  0
    0.2330  196.4390   18.6320 N   0  0  0  0  0  0  0  0  0  0  0  0
   -0.4130  197.0590   19.6240 C   0  0  0  0  0  0  0  0  0  0  0  0
   -0.5710  196.6010   20.8680 N   0  0  0  0  0  0  0  0  0  0  0  0
   -0.0230  195.4040   21.1470 C   0  0  0  0  0  0  0  0  0  0  0  0
   -0.2040  194.8490   22.4460 N   0  0  0  0  0  0  0  0  0  0  0  0
    0.4770  195.1880   23.6370 C   0  0  0  0  0  0  0  0  0  0  0  0
    1.8600  195.4360   23.5830 C   0  0  0  0  0  0  0  0  0  0  0  0
    2.5640  195.8350   24.7230 C   0  0  0  0  0  0  0  0  0  0  0  0
    1.8850  196.0150   25.9220 C   0  0  0  0  0  0  0  0  0  0  0  0
    2.5780  196.4010   27.0030 F   0  0  0  0  0  0  0  0  0  0  0  0
    0.5110  195.8110   25.9890 C   0  0  0  0  0  0  0  0  0  0  0  0
   -0.3400  196.0610   27.4660 Cl  0  0  0  0  0  0  0  0  0  0  0  0
   -0.1910  195.4130   24.8490 C   0  0  0  0  0  0  0  0  0  0  0  0
    0.7020  194.6710   20.1870 C   0  0  0  0  0  0  0  0  0  0  0  0
    1.3400  193.4240   20.4200 C   0  0  0  0  0  0  0  0  0  0  0  0
    2.0320  192.7670   19.4020 C   0  0  0  0  0  0  0  0  0  0  0  0
    2.6770  191.5660   19.5430 O   0  0  0  0  0  0  0  0  0  0  0  0
    2.1080  190.5900   20.4090 C   0  0  0  0  0  0  0  0  0  0  0  0
    3.1860  190.0690   21.3590 C   0  0  0  0  0  0  0  0  0  0  0  0
    4.5930  190.4970   20.9170 C   0  0  0  0  0  0  0  0  0  0  0  0
    5.3290  191.2110   21.9740 N   0  0  0  0  0  0  0  0  0  0  0  0
    6.5700  191.8390   21.4680 C   0  0  0  0  0  0  0  0  0  0  0  0
    6.9950  193.0500   22.3140 C   0  0  0  0  0  0  0  0  0  0  0  0
    6.0330  194.1140   22.2690 O   0  0  0  0  0  0  0  0  0  0  0  0
    4.6860  193.6450   22.1210 C   0  0  0  0  0  0  0  0  0  0  0  0
    4.4770  192.2170   22.6470 C   0  0  0  0  0  0  0  0  0  0  0  0
    4.4557  193.8678   17.0777 H   0  0  0  0  0  0  0  0  0  0  0  0
    4.3021  192.6465   15.7695 H   0  0  0  0  0  0  0  0  0  0  0  0
    3.2468  194.1001   15.7695 H   0  0  0  0  0  0  0  0  0  0  0  0
    1.5355  195.0508   16.9155 H   0  0  0  0  0  0  0  0  0  0  0  0
   -0.8563  198.0391   19.3939 H   0  0  0  0  0  0  0  0  0  0  0  0
   -1.2000  194.7280   22.6040 H   0  0  0  0  0  0  0  0  0  0  0  0
    2.3957  195.3143   22.6300 H   0  0  0  0  0  0  0  0  0  0  0  0
    3.6495  196.0055   24.6712 H   0  0  0  0  0  0  0  0  0  0  0  0
   -1.2809  195.2744   24.9027 H   0  0  0  0  0  0  0  0  0  0  0  0
    1.2878  192.9683   21.4198 H   0  0  0  0  0  0  0  0  0  0  0  0
    1.2936  191.0455   20.9915 H   0  0  0  0  0  0  0  0  0  0  0  0
    1.7075  189.7567   19.8130 H   0  0  0  0  0  0  0  0  0  0  0  0
    2.9938  190.4654   22.3669 H   0  0  0  0  0  0  0  0  0  0  0  0
    3.1455  188.9698   21.3512 H   0  0  0  0  0  0  0  0  0  0  0  0
    5.1625  189.5983   20.6374 H   0  0  0  0  0  0  0  0  0  0  0  0
    4.4786  191.1871   20.0681 H   0  0  0  0  0  0  0  0  0  0  0  0
    7.3778  191.0927   21.4870 H   0  0  0  0  0  0  0  0  0  0  0  0
    6.3761  192.1934   20.4449 H   0  0  0  0  0  0  0  0  0  0  0  0
    7.1152  192.7265   23.3585 H   0  0  0  0  0  0  0  0  0  0  0  0
    7.9389  193.4338   21.8995 H   0  0  0  0  0  0  0  0  0  0  0  0
    4.0182  194.3218   22.6742 H   0  0  0  0  0  0  0  0  0  0  0  0
    4.4632  193.6306   21.0439 H   0  0  0  0  0  0  0  0  0  0  0  0
    4.7068  192.2047   23.7227 H   0  0  0  0  0  0  0  0  0  0  0  0
    3.4310  191.9456   22.4416 H   0  0  0  0  0  0  0  0  0  0  0  0
  1  2  1  0
  2  3  1  0
  3  4  2  0
  4  5  1  0
  5  6  2  0
  6  7  1  0
  7  8  2  0
  8  9  1  0
  9 10  1  0
 10 11  1  0
 11 12  1  0
 12 13  2  0
 13 14  1  0
 14 15  1  0
 14 16  2  0
 16 17  1  0
 16 18  1  0
  9 19  2  0
 19 20  1  0
 20 21  2  0
 21 22  1  0
 22 23  1  0
 23 24  1  0
 24 25  1  0
 25 26  1  0
 26 27  1  0
 27 28  1  0
 28 29  1  0
 29 30  1  0
 30 31  1  0
 21  3  1  0
 31 26  1  0
 19  5  1  0
 18 11  2  0
  1 32  1  0
  1 33  1  0
  1 34  1  0
  4 35  1  0
  7 36  1  0
 10 37  1  0
 12 38  1  0
 13 39  1  0
 18 40  1  0
 20 41  1  0
 23 42  1  0
 23 43  1  0
 24 44  1  0
 24 45  1  0
 25 46  1  0
 25 47  1  0
 27 48  1  0
 27 49  1  0
 28 50  1  0
 28 51  1  0
 30 52  1  0
 30 53  1  0
 31 54  1  0
 31 55  1  0
M  END
>  <meeko>  (5) 
{"is_sidechain": false}

>  <vina_score>  (5) 
-7.26

$$$$
gefitinib_pose_6
     RDKit          3D

 55 58  0  0  0  0  0  0  0  0999 V2000
    8.1200  191.5780   19.7930 C   0  0  0  0  0  0  0  0  0  0  0  0
    6.7020  191.5710   19.8740 O   0  0  0  0  0  0  0  0  0  0  0  0
    6.1260  192.0520   21.0240 C   0  0  0  0  0  0  0  0  0  0  0  0
    6.2280  191.4400   22.2770 C   0  0  0  0  0  0  0  0  0  0  0  0
    5.6290  191.9750   23.4100 C   0  0  0  0  0  0  0  0  0  0  0  0
    5.7660  191.3220   24.5670 N   0  0  0  0  0  0  0  0  0  0  0  0
    5.1700  191.8570   25.6360 C   0  0  0  0  0  0  0  0  0  0  0  0
    4.4670  192.9910   25.6600 N   0  0  0  0  0  0  0  0  0  0  0  0
    4.3460  193.6540   24.4950 C   0  0  0  0  0  0  0  0  0  0  0  0
    3.6470  194.8940   24.4760 N   0  0  0  0  0  0  0  0  0  0  0  0
    2.4610  195.2330   25.1660 C   0  0  0  0  0  0  0  0  0  0  0  0
    2.5540  195.9980   26.3430 C   0  0  0  0  0  0  0  0  0  0  0  0
    1.4070  196.4100   27.0260 C   0  0  0  0  0  0  0  0  0  0  0  0
    0.1530  196.0830   26.5230 C   0  0  0  0  0  0  0  0  0  0  0  0
   -0.9350  196.4900   27.1910 F   0  0  0  0  0  0  0  0  0  0  0  0
    0.0370  195.3590   25.3410 C   0  0  0  0  0  0  0  0  0  0  0  0
   -1.5140  194.9760   24.6980 Cl  0  0  0  0  0  0  0  0  0  0  0  0
    1.1860  194.9480   24.6590 C   0  0  0  0  0  0  0  0  0  0  0  0
    4.9120  193.1720   23.2980 C   0  0  0  0  0  0  0  0  0  0  0  0
    4.7920  193.7950   22.0270 C   0  0  0  0  0  0  0  0  0  0  0  0
    5.3950  193.2440   20.8960 C   0  0  0  0  0  0  0  0  0  0  0  0
    5.3260  193.7770   19.6350 O   0  0  0  0  0  0  0  0  0  0  0  0
    4.0880  194.3310   19.2010 C   0  0  0  0  0  0  0  0  0  0  0  0
    3.1140  193.1980   18.8810 C   0  0  0  0  0  0  0  0  0  0  0  0
    1.6620  193.5880   19.1930 C   0  0  0  0  0  0  0  0  0  0  0  0
    1.4860  195.0400   19.3630 N   0  0  0  0  0  0  0  0  0  0  0  0
    0.3680  195.5700   18.5500 C   0  0  0  0  0  0  0  0  0  0  0  0
   -0.2280  196.8540   19.1480 C   0  0  0  0  0  0  0  0  0  0  0  0
   -0.8190  196.6350   20.4370 O   0  0  0  0  0  0  0  0  0  0  0  0
   -0.1600  195.6050   21.1880 C   0  0  0  0  0  0  0  0  0  0  0  0
    1.3090  195.4040   20.7860 C   0  0  0  0  0  0  0  0  0  0  0  0
    8.5452  191.5801   20.8075 H   0  0  0  0  0  0  0  0  0  0  0  0
    8.4609  190.6815   19.2544 H   0  0  0  0  0  0  0  0  0  0  0  0
    8.4521  192.4778   19.2544 H   0  0  0  0  0  0  0  0  0  0  0  0
    6.8007  190.5053   22.3682 H   0  0  0  0  0  0  0  0  0  0  0  0
    5.2679  191.3114   26.5861 H   0  0  0  0  0  0  0  0  0  0  0  0
    4.3300  195.6450   24.5120 H   0  0  0  0  0  0  0  0  0  0  0  0
    3.5449  196.2760   26.7314 H   0  0  0  0  0  0  0  0  0  0  0  0
    1.4957  196.9899   27.9565 H   0  0  0  0  0  0  0  0  0  0  0  0
    1.0882  194.3945   23.7135 H   0  0  0  0  0  0  0  0  0  0  0  0
    4.2145  194.7265   21.9331 H   0  0  0  0  0  0  0  0  0  0  0  0
    3.6683  194.9626   19.9978 H   0  0  0  0  0  0  0  0  0  0  0  0
    4.2522  194.9418   18.3010 H   0  0  0  0  0  0  0  0  0  0  0  0
    3.1943  192.9509   17.8121 H   0  0  0  0  0  0  0  0  0  0  0  0
    3.3777  192.3335   19.5080 H   0  0  0  0  0  0  0  0  0  0  0  0
    1.0216  193.2508   18.3646 H   0  0  0  0  0  0  0  0  0  0  0  0
    1.3864  193.1071   20.1431 H   0  0  0  0  0  0  0  0  0  0  0  0
    0.7392  195.7898   17.5381 H   0  0  0  0  0  0  0  0  0  0  0  0
   -0.4249  194.8079   18.5293 H   0  0  0  0  0  0  0  0  0  0  0  0
    0.5729  197.6012   19.2491 H   0  0  0  0  0  0  0  0  0  0  0  0
   -1.0215  197.2022   18.4704 H   0  0  0  0  0  0  0  0  0  0  0  0
   -0.1965  195.8729   22.2543 H   0  0  0  0  0  0  0  0  0  0  0  0
   -0.6866  194.6622   20.9788 H   0  0  0  0  0  0  0  0  0  0  0  0
    1.8535  196.3406   20.9763 H   0  0  0  0  0  0  0  0  0  0  0  0
    1.6972  194.5672   21.3852 H   0  0  0  0  0  0  0  0  0  0  0  0
  1  2  1  0
  2  3  1  0
  3  4  2  0
  4  5  1  0
  5  6  2  0
  6  7  1  0
  7  8  2  0
  8  9  1  0
  9 10  1  0
 10 11  1  0
 11 12  1  0
 12 13  2  0
 13 14  1  0
 14 15  1  0
 14 16  2  0
 16 17  1  0
 16 18  1  0
  9 19  2  0
 19 20  1  0
 20 21  2  0
 21 22  1  0
 22 23  1  0
 23 24  1  0
 24 25  1  0
 25 26  1  0
 26 27  1  0
 27 28  1  0
 28 29  1  0
 29 30  1  0
 30 31  1  0
 21  3  1  0
 31 26  1  0
 19  5  1  0
 18 11  2  0
  1 32  1  0
  1 33  1  0
  1 34  1  0
  4 35  1  0
  7 36  1  0
 10 37  1  0
 12 38  1  0
 13 39  1  0
 18 40  1  0
 20 41  1  0
 23 42  1  0
 23 43  1  0
 24 44  1  0
 24 45  1  0
 25 46  1  0
 25 47  1  0
 27 48  1  0
 27 49  1  0
 28 50  1  0
 28 51  1  0
 30 52  1  0
 30 53  1  0
 31 54  1  0
 31 55  1  0
M  END
>  <meeko>  (6) 
{"is_sidechain": false}

>  <vina_score>  (6) 
-7.22

$$$$
gefitinib_pose_7
     RDKit          3D

 55 58  0  0  0  0  0  0  0  0999 V2000
    2.8370  189.7490   26.0920 C   0  0  0  0  0  0  0  0  0  0  0  0
    3.9630  190.3430   25.4630 O   0  0  0  0  0  0  0  0  0  0  0  0
    3.8190  190.7660   24.1650 C   0  0  0  0  0  0  0  0  0  0  0  0
    3.7780  189.9160   23.0540 C   0  0  0  0  0  0  0  0  0  0  0  0
    3.6240  190.4000   21.7620 C   0  0  0  0  0  0  0  0  0  0  0  0
    3.6060  189.5220   20.7550 N   0  0  0  0  0  0  0  0  0  0  0  0
    3.4670  190.0190   19.5230 C   0  0  0  0  0  0  0  0  0  0  0  0
    3.3260  191.3080   19.2060 N   0  0  0  0  0  0  0  0  0  0  0  0
    3.3290  192.1870   20.2240 C   0  0  0  0  0  0  0  0  0  0  0  0
    3.1340  193.5690   19.9440 N   0  0  0  0  0  0  0  0  0  0  0  0
    1.9260  194.2270   19.6190 C   0  0  0  0  0  0  0  0  0  0  0  0
    1.2980  195.0190   20.5970 C   0  0  0  0  0  0  0  0  0  0  0  0
    0.1360  195.7370   20.3040 C   0  0  0  0  0  0  0  0  0  0  0  0
   -0.3940  195.6920   19.0200 C   0  0  0  0  0  0  0  0  0  0  0  0
   -1.5080  196.3910   18.7580 F   0  0  0  0  0  0  0  0  0  0  0  0
    0.2310  194.9450   18.0270 C   0  0  0  0  0  0  0  0  0  0  0  0
   -0.4060  194.9090   16.4270 Cl  0  0  0  0  0  0  0  0  0  0  0  0
    1.3930  194.2270   18.3230 C   0  0  0  0  0  0  0  0  0  0  0  0
    3.4930  191.7800   21.5630 C   0  0  0  0  0  0  0  0  0  0  0  0
    3.5460  192.6510   22.6830 C   0  0  0  0  0  0  0  0  0  0  0  0
    3.7050  192.1530   23.9760 C   0  0  0  0  0  0  0  0  0  0  0  0
    3.7700  192.9230   25.1080 O   0  0  0  0  0  0  0  0  0  0  0  0
    4.4880  194.1510   25.0530 C   0  0  0  0  0  0  0  0  0  0  0  0
    3.5280  195.2800   24.6790 C   0  0  0  0  0  0  0  0  0  0  0  0
    2.7480  195.7940   25.8970 C   0  0  0  0  0  0  0  0  0  0  0  0
    1.5210  196.5180   25.5240 N   0  0  0  0  0  0  0  0  0  0  0  0
    1.4480  196.7900   24.0710 C   0  0  0  0  0  0  0  0  0  0  0  0
   -0.0000  196.9430   23.5810 C   0  0  0  0  0  0  0  0  0  0  0  0
   -0.7630  195.7380   23.7390 O   0  0  0  0  0  0  0  0  0  0  0  0
   -0.3560  194.9640   24.8770 C   0  0  0  0  0  0  0  0  0  0  0  0
    0.3070  195.8030   25.9790 C   0  0  0  0  0  0  0  0  0  0  0  0
    2.9526  189.8100   27.1842 H   0  0  0  0  0  0  0  0  0  0  0  0
    1.9240  190.2828   25.7895 H   0  0  0  0  0  0  0  0  0  0  0  0
    2.7622  188.6940   25.7895 H   0  0  0  0  0  0  0  0  0  0  0  0
    3.8707  188.8310   23.2093 H   0  0  0  0  0  0  0  0  0  0  0  0
    3.4689  189.2986   18.6917 H   0  0  0  0  0  0  0  0  0  0  0  0
    3.6890  194.1080   20.6020 H   0  0  0  0  0  0  0  0  0  0  0  0
    1.7283  195.0739   21.6079 H   0  0  0  0  0  0  0  0  0  0  0  0
   -0.3567  196.3346   21.0851 H   0  0  0  0  0  0  0  0  0  0  0  0
    1.8953  193.6549   17.5290 H   0  0  0  0  0  0  0  0  0  0  0  0
    3.4602  193.7367   22.5283 H   0  0  0  0  0  0  0  0  0  0  0  0
    4.9356  194.3595   26.0360 H   0  0  0  0  0  0  0  0  0  0  0  0
    5.2848  194.0790   24.2980 H   0  0  0  0  0  0  0  0  0  0  0  0
    4.1065  196.1115   24.2502 H   0  0  0  0  0  0  0  0  0  0  0  0
    2.8035  194.8850   23.9517 H   0  0  0  0  0  0  0  0  0  0  0  0
    2.4718  194.9348   26.5258 H   0  0  0  0  0  0  0  0  0  0  0  0
    3.3990  196.4996   26.4339 H   0  0  0  0  0  0  0  0  0  0  0  0
    1.9945  197.7203   23.8569 H   0  0  0  0  0  0  0  0  0  0  0  0
    1.8939  195.9333   23.5444 H   0  0  0  0  0  0  0  0  0  0  0  0
   -0.4844  197.7455   24.1566 H   0  0  0  0  0  0  0  0  0  0  0  0
    0.0334  197.1795   22.5072 H   0  0  0  0  0  0  0  0  0  0  0  0
   -1.2443  194.4721   25.3000 H   0  0  0  0  0  0  0  0  0  0  0  0
    0.3929  194.2389   24.5258 H   0  0  0  0  0  0  0  0  0  0  0  0
   -0.4211  196.5455   26.3375 H   0  0  0  0  0  0  0  0  0  0  0  0
    0.6180  195.1083   26.7731 H   0  0  0  0  0  0  0  0  0  0  0  0
  1  2  1  0
  2  3  1  0
  3  4  2  0
  4  5  1  0
  5  6  2  0
  6  7  1  0
  7  8  2  0
  8  9  1  0
  9 10  1  0
 10 11  1  0
 11 12  1  0
 12 13  2  0
 13 14  1  0
 14 15  1  0
 14 16  2  0
 16 17  1  0
 16 18  1  0
  9 19  2  0
 19 20  1  0
 20 21  2  0
 21 22  1  0
 22 23  1  0
 23 24  1  0
 24 25  1  0
 25 26  1  0
 26 27  1  0
 27 28  1  0
 28 29  1  0
 29 30  1  0
 30 31  1  0
 21  3  1  0
 31 26  1  0
 19  5  1  0
 18 11  2  0
  1 32  1  0
  1 33  1  0
  1 34  1  0
  4 35  1  0
  7 36  1  0
 10 37  1  0
 12 38  1  0
 13 39  1  0
 18 40  1  0
 20 41  1  0
 23 42  1  0
 23 43  1  0
 24 44  1  0
 24 45  1  0
 25 46  1  0
 25 47  1  0
 27 48  1  0
 27 49  1  0
 28 50  1  0
 28 51  1  0
 30 52  1  0
 30 53  1  0
 31 54  1  0
 31 55  1  0
M  END
>  <meeko>  (7) 
{"is_sidechain": false}

>  <vina_score>  (7) 
-7.22

$$$$
gefitinib_pose_8
     RDKit          3D

 55 58  0  0  0  0  0  0  0  0999 V2000
    7.6850  192.1480   23.1210 C   0  0  0  0  0  0  0  0  0  0  0  0
    7.1510  193.2900   22.4640 O   0  0  0  0  0  0  0  0  0  0  0  0
    6.2090  193.0810   21.4880 C   0  0  0  0  0  0  0  0  0  0  0  0
    6.4980  192.6730   20.1820 C   0  0  0  0  0  0  0  0  0  0  0  0
    5.5030  192.4710   19.2350 C   0  0  0  0  0  0  0  0  0  0  0  0
    5.8650  192.0910   18.0070 N   0  0  0  0  0  0  0  0  0  0  0  0
    4.8850  191.9160   17.1150 C   0  0  0  0  0  0  0  0  0  0  0  0
    3.5780  192.0670   17.3430 N   0  0  0  0  0  0  0  0  0  0  0  0
    3.2170  192.4340   18.5860 C   0  0  0  0  0  0  0  0  0  0  0  0
    1.8340  192.5620   18.8950 N   0  0  0  0  0  0  0  0  0  0  0  0
    1.0510  193.7400   18.9030 C   0  0  0  0  0  0  0  0  0  0  0  0
    0.4580  194.1700   17.7030 C   0  0  0  0  0  0  0  0  0  0  0  0
   -0.3740  195.2930   17.6740 C   0  0  0  0  0  0  0  0  0  0  0  0
   -0.6410  195.9800   18.8520 C   0  0  0  0  0  0  0  0  0  0  0  0
   -1.4440  197.0520   18.8040 F   0  0  0  0  0  0  0  0  0  0  0  0
   -0.0960  195.5490   20.0560 C   0  0  0  0  0  0  0  0  0  0  0  0
   -0.4470  196.3800   21.5240 Cl  0  0  0  0  0  0  0  0  0  0  0  0
    0.7360  194.4270   20.0830 C   0  0  0  0  0  0  0  0  0  0  0  0
    4.1660  192.6710   19.6010 C   0  0  0  0  0  0  0  0  0  0  0  0
    3.8630  193.0980   20.9210 C   0  0  0  0  0  0  0  0  0  0  0  0
    4.8730  193.3010   21.8620 C   0  0  0  0  0  0  0  0  0  0  0  0
    4.6690  193.7150   23.1520 O   0  0  0  0  0  0  0  0  0  0  0  0
    3.7820  192.9620   23.9720 C   0  0  0  0  0  0  0  0  0  0  0  0
    2.7840  193.9090   24.6380 C   0  0  0  0  0  0  0  0  0  0  0  0
    3.4890  195.0260   25.4200 C   0  0  0  0  0  0  0  0  0  0  0  0
    2.6680  196.2420   25.5400 N   0  0  0  0  0  0  0  0  0  0  0  0
    1.4980  196.2230   24.6340 C   0  0  0  0  0  0  0  0  0  0  0  0
    0.3450  197.0960   25.1540 C   0  0  0  0  0  0  0  0  0  0  0  0
   -0.1830  196.6200   26.4010 O   0  0  0  0  0  0  0  0  0  0  0  0
    0.8080  195.9880   27.2230 C   0  0  0  0  0  0  0  0  0  0  0  0
    2.2370  196.4720   26.9370 C   0  0  0  0  0  0  0  0  0  0  0  0
    7.6197  192.2876   24.2101 H   0  0  0  0  0  0  0  0  0  0  0  0
    7.1106  191.2559   22.8306 H   0  0  0  0  0  0  0  0  0  0  0  0
    8.7378  192.0168   22.8306 H   0  0  0  0  0  0  0  0  0  0  0  0
    7.5471  192.5068   19.8959 H   0  0  0  0  0  0  0  0  0  0  0  0
    5.1830  191.6200   16.0983 H   0  0  0  0  0  0  0  0  0  0  0  0
    1.3390  191.7860   18.4640 H   0  0  0  0  0  0  0  0  0  0  0  0
    0.6515  193.6147   16.7734 H   0  0  0  0  0  0  0  0  0  0  0  0
   -0.8147  195.6308   16.7244 H   0  0  0  0  0  0  0  0  0  0  0  0
    1.1485  194.0789   21.0415 H   0  0  0  0  0  0  0  0  0  0  0  0
    2.8149  193.2716   21.2063 H   0  0  0  0  0  0  0  0  0  0  0  0
    3.2394  192.2323   23.3530 H   0  0  0  0  0  0  0  0  0  0  0  0
    4.3564  192.4292   24.7441 H   0  0  0  0  0  0  0  0  0  0  0  0
    2.1519  194.3634   23.8608 H   0  0  0  0  0  0  0  0  0  0  0  0
    2.1808  193.3242   25.3480 H   0  0  0  0  0  0  0  0  0  0  0  0
    3.7200  194.6565   26.4300 H   0  0  0  0  0  0  0  0  0  0  0  0
    4.4007  195.2944   24.8661 H   0  0  0  0  0  0  0  0  0  0  0  0
    1.8083  196.5974   23.6473 H   0  0  0  0  0  0  0  0  0  0  0  0
    1.1352  195.1863   24.5737 H   0  0  0  0  0  0  0  0  0  0  0  0
    0.7152  198.1221   25.2959 H   0  0  0  0  0  0  0  0  0  0  0  0
   -0.4652  197.0586   24.4109 H   0  0  0  0  0  0  0  0  0  0  0  0
    0.5729  196.1987   28.2767 H   0  0  0  0  0  0  0  0  0  0  0  0
    0.7786  194.9118   26.9974 H   0  0  0  0  0  0  0  0  0  0  0  0
    2.2874  197.5512   27.1441 H   0  0  0  0  0  0  0  0  0  0  0  0
    2.9114  195.8920   27.5841 H   0  0  0  0  0  0  0  0  0  0  0  0
  1  2  1  0
  2  3  1  0
  3  4  2  0
  4  5  1  0
  5  6  2  0
  6  7  1  0
  7  8  2  0
  8  9  1  0
  9 10  1  0
 10 11  1  0
 11 12  1  0
 12 13  2  0
 13 14  1  0
 14 15  1  0
 14 16  2  0
 16 17  1  0
 16 18  1  0
  9 19  2  0
 19 20  1  0
 20 21  2  0
 21 22  1  0
 22 23  1  0
 23 24  1  0
 24 25  1  0
 25 26  1  0
 26 27  1  0
 27 28  1  0
 28 29  1  0
 29 30  1  0
 30 31  1  0
 21  3  1  0
 31 26  1  0
 19  5  1  0
 18 11  2  0
  1 32  1  0
  1 33  1  0
  1 34  1  0
  4 35  1  0
  7 36  1  0
 10 37  1  0
 12 38  1  0
 13 39  1  0
 18 40  1  0
 20 41  1  0
 23 42  1  0
 23 43  1  0
 24 44  1  0
 24 45  1  0
 25 46  1  0
 25 47  1  0
 27 48  1  0
 27 49  1  0
 28 50  1  0
 28 51  1  0
 30 52  1  0
 30 53  1  0
 31 54  1  0
 31 55  1  0
M  END
>  <meeko>  (8) 
{"is_sidechain": false}

>  <vina_score>  (8) 
-7.04

$$$$
gefitinib_pose_9
     RDKit          3D

 55 58  0  0  0  0  0  0  0  0999 V2000
   -0.9520  196.7460   19.6990 C   0  0  0  0  0  0  0  0  0  0  0  0
   -0.5770  195.5210   20.3120 O   0  0  0  0  0  0  0  0  0  0  0  0
    0.2210  195.5830   21.4280 C   0  0  0  0  0  0  0  0  0  0  0  0
   -0.2360  195.8990   22.7120 C   0  0  0  0  0  0  0  0  0  0  0  0
    0.6160  195.9420   23.8070 C   0  0  0  0  0  0  0  0  0  0  0  0
    0.1020  196.2620   24.9980 N   0  0  0  0  0  0  0  0  0  0  0  0
    0.9490  196.3050   26.0300 C   0  0  0  0  0  0  0  0  0  0  0  0
    2.2570  196.0400   25.9860 N   0  0  0  0  0  0  0  0  0  0  0  0
    2.7670  195.7020   24.7870 C   0  0  0  0  0  0  0  0  0  0  0  0
    4.1470  195.3640   24.6950 N   0  0  0  0  0  0  0  0  0  0  0  0
    4.7180  194.0780   24.5570 C   0  0  0  0  0  0  0  0  0  0  0  0
    3.9580  192.9530   24.9250 C   0  0  0  0  0  0  0  0  0  0  0  0
    4.4570  191.6600   24.7490 C   0  0  0  0  0  0  0  0  0  0  0  0
    5.7100  191.4790   24.1760 C   0  0  0  0  0  0  0  0  0  0  0  0
    6.1690  190.2290   24.0130 F   0  0  0  0  0  0  0  0  0  0  0  0
    6.4620  192.5750   23.7700 C   0  0  0  0  0  0  0  0  0  0  0  0
    8.0040  192.3550   23.0340 Cl  0  0  0  0  0  0  0  0  0  0  0  0
    5.9630  193.8680   23.9480 C   0  0  0  0  0  0  0  0  0  0  0  0
    1.9730  195.6490   23.6240 C   0  0  0  0  0  0  0  0  0  0  0  0
    2.4480  195.3390   22.3230 C   0  0  0  0  0  0  0  0  0  0  0  0
    1.5820  195.3040   21.2290 C   0  0  0  0  0  0  0  0  0  0  0  0
    1.9580  195.0190   19.9430 O   0  0  0  0  0  0  0  0  0  0  0  0
    2.7010  193.8280   19.7020 C   0  0  0  0  0  0  0  0  0  0  0  0
    4.0160  194.1860   19.0090 C   0  0  0  0  0  0  0  0  0  0  0  0
    4.5560  193.0200   18.1690 C   0  0  0  0  0  0  0  0  0  0  0  0
    5.2050  191.9820   18.9870 N   0  0  0  0  0  0  0  0  0  0  0  0
    5.8480  190.9350   18.1610 C   0  0  0  0  0  0  0  0  0  0  0  0
    7.0080  190.2450   18.8970 C   0  0  0  0  0  0  0  0  0  0  0  0
    8.0810  191.1490   19.1960 O   0  0  0  0  0  0  0  0  0  0  0  0
    7.6340  192.4900   19.4400 C   0  0  0  0  0  0  0  0  0  0  0  0
    6.1810  192.5660   19.9340 C   0  0  0  0  0  0  0  0  0  0  0  0
   -1.1798  197.4903   20.4763 H   0  0  0  0  0  0  0  0  0  0  0  0
   -0.1245  197.1112   19.0730 H   0  0  0  0  0  0  0  0  0  0  0  0
   -1.8421  196.5854   19.0730 H   0  0  0  0  0  0  0  0  0  0  0  0
   -1.3035  196.1202   22.8583 H   0  0  0  0  0  0  0  0  0  0  0  0
    0.5297  196.5849   27.0077 H   0  0  0  0  0  0  0  0  0  0  0  0
    4.6010  196.0420   24.0910 H   0  0  0  0  0  0  0  0  0  0  0  0
    2.9564  193.0933   25.3576 H   0  0  0  0  0  0  0  0  0  0  0  0
    3.8613  190.7900   25.0623 H   0  0  0  0  0  0  0  0  0  0  0  0
    6.5538  194.7307   23.6064 H   0  0  0  0  0  0  0  0  0  0  0  0
    3.5163  195.1228   22.1744 H   0  0  0  0  0  0  0  0  0  0  0  0
    2.9136  193.3274   20.6582 H   0  0  0  0  0  0  0  0  0  0  0  0
    2.1172  193.1524   19.0595 H   0  0  0  0  0  0  0  0  0  0  0  0
    3.8470  195.0506   18.3503 H   0  0  0  0  0  0  0  0  0  0  0  0
    4.7587  194.4190   19.7863 H   0  0  0  0  0  0  0  0  0  0  0  0
    3.7184  192.5636   17.6213 H   0  0  0  0  0  0  0  0  0  0  0  0
    5.3158  193.4272   17.4857 H   0  0  0  0  0  0  0  0  0  0  0  0
    5.0943  190.1778   17.8993 H   0  0  0  0  0  0  0  0  0  0  0  0
    6.2586  191.4188   17.2625 H   0  0  0  0  0  0  0  0  0  0  0  0
    6.6278  189.8241   19.8395 H   0  0  0  0  0  0  0  0  0  0  0  0
    7.4049  189.4603   18.2361 H   0  0  0  0  0  0  0  0  0  0  0  0
    8.2859  192.9421   20.2020 H   0  0  0  0  0  0  0  0  0  0  0  0
    7.6809  193.0284   18.4819 H   0  0  0  0  0  0  0  0  0  0  0  0
    6.1086  192.0230   20.8879 H   0  0  0  0  0  0  0  0  0  0  0  0
    5.9306  193.6318   20.0410 H   0  0  0  0  0  0  0  0  0  0  0  0
  1  2  1  0
  2  3  1  0
  3  4  2  0
  4  5  1  0
  5  6  2  0
  6  7  1  0
  7  8  2  0
  8  9  1  0
  9 10  1  0
 10 11  1  0
 11 12  1  0
 12 13  2  0
 13 14  1  0
 14 15  1  0
 14 16  2  0
 16 17  1  0
 16 18  1  0
  9 19  2  0
 19 20  1  0
 20 21  2  0
 21 22  1  0
 22 23  1  0
 23 24  1  0
 24 25  1  0
 25 26  1  0
 26 27  1  0
 27 28  1  0
 28 29  1  0
 29 30  1  0
 30 31  1  0
 21  3  1  0
 31 26  1  0
 19  5  1  0
 18 11  2  0
  1 32  1  0
  1 33  1  0
  1 34  1  0
  4 35  1  0
  7 36  1  0
 10 37  1  0
 12 38  1  0
 13 39  1  0
 18 40  1  0
 20 41  1  0
 23 42  1  0
 23 43  1  0
 24 44  1  0
 24 45  1  0
 25 46  1  0
 25 47  1  0
 27 48  1  0
 27 49  1  0
 28 50  1  0
 28 51  1  0
 30 52  1  0
 30 53  1  0
 31 54  1  0
 31 55  1  0
M  END
>  <meeko>  (9) 
{"is_sidechain": false}

>  <vina_score>  (9) 
-6.77

$$$$
